minlp-notes/research-20261001/scip-set-selection/logs/root/powerflow0039r.corner.s0.log
SCIP version 10.0.3 [precision: 8 byte] [memory: block] [mode: optimized] [LP solver: SoPlex 8.0.3] [GitHash: d409edf9f6]
Copyright (c) 2002-2026 Zuse Institute Berlin (ZIB)

External libraries: 
  Readline 8.3         GNU library for command line editing (gnu.org/s/readline)
  SoPlex 8.0.3         Linear programming solver developed at Zuse Institute Berlin (soplex.zib.de) [GitHash: 13e2ab24]
  CppAD 20180000.0     Algorithmic Differentiation of C++ algorithms developed by B. Bell (github.com/coin-or/CppAD)
  ZLIB 1.3.2           General purpose compression library by J. Gailly and M. Adler (zlib.net)
  LAPACK 3.12.0        General Linear Algebra PACKage (http://www.netlib.org/lapack/)
  MPFR 4.2.2           GNU Multiple Precision Floating-Point Reliable Library (mpfr.org)
  Boost 1.85.0         Boost C++ Libraries (boost.org)
  TinyCThread 1.2      small portable implementation of the C11 threads API (tinycthread.github.io)
  GMP 6.3.0            GNU Multiple Precision Arithmetic Library developed by T. Granlund (gmplib.org)
  AMPL/MP 4.0.4        AMPL .nl file reader library (github.com/ampl/mp)
  Nauty 2.8.8          Computing Graph Automorphism Groups by Brendan D. McKay (users.cecs.anu.edu.au/~bdm/nauty)
  sassy 2.1            Symmetry preprocessor by Markus Anders (github.com/markusa4/sassy)

user parameter file <scip.set> not found - using default parameters

table/nlhdlr_quadratic/active = TRUE
limits/memory = 6000
limits/time = 120
timing/clocktype = 1
nlhdlr/quadratic/useintersectioncuts = TRUE
nlhdlr/quadratic/setrule = 1
limits/nodes = 1

read problem </workspace/local-home/.cache/minlplib/minlplib/osil/powerflow0039r.osil>
============

original problem has 284 variables (0 bin, 0 int, 284 cont) and 474 constraints

presolving:
(round 1, fast)       43 del vars, 90 del conss, 0 add conss, 548 chg bounds, 0 chg sides, 0 chg coeffs, 0 upgd conss, 0 impls, 0 clqs, 0 implints
(round 2, fast)       43 del vars, 90 del conss, 0 add conss, 551 chg bounds, 0 chg sides, 0 chg coeffs, 0 upgd conss, 0 impls, 0 clqs, 0 implints
   (0.0s) symmetry computation started: requiring (bin +, int +, cont +), (fixed: bin -, int -, cont -)
   (0.0s) no symmetry present (symcode time: 0.00)
presolving (3 rounds: 3 fast, 1 medium, 1 exhaustive):
 43 deleted vars, 90 deleted constraints, 0 added constraints, 551 tightened bounds, 0 added holes, 0 changed sides, 0 changed coefficients
 0 implications, 0 cliques, 0 implied integral variables (0 bin, 0 int, 0 cont)
presolved problem has 241 variables (0 bin, 0 int, 241 cont) and 345 constraints
     38 constraints of type <linear>
    307 constraints of type <nonlinear>
Presolving Time: 0.04

 time | node  | left  |LP iter|LP it/n|mem/heur|mdpt |vars |cons |rows |cuts |sepa|confs|strbr|  dualbound   | primalbound  |  gap   | compl. 
  0.1s|     1 |     0 |  1829 |     - |    11M |   0 | 961 | 345 |1207 |   0 |  0 |   0 |   0 | 2.579052e+04 |      --      |    Inf | unknown
  0.1s|     1 |     0 |  1843 |     - |    12M |   0 | 961 | 345 |1207 |   0 |  0 |   0 |   0 | 2.579052e+04 |      --      |    Inf | unknown
  0.3s|     1 |     0 |  2045 |     - |    14M |   0 | 961 | 345 |1338 | 131 |  1 |   0 |   0 | 2.669469e+04 |      --      |    Inf | unknown
  0.6s|     1 |     0 |  2342 |     - |    16M |   0 | 961 | 345 |1480 | 273 |  2 |   0 |   0 | 2.702692e+04 |      --      |    Inf | unknown
  0.6s|     1 |     0 |  2342 |     - |    16M |   0 | 961 | 345 |1480 | 273 |  2 |   0 |   0 | 2.702692e+04 |      --      |    Inf | unknown
  0.9s|     1 |     0 |  2549 |     - |    16M |   0 | 961 | 345 |1610 | 403 |  3 |   0 |   0 | 2.709785e+04 |      --      |    Inf | unknown
  1.2s|     1 |     0 |  2780 |     - |    19M |   0 | 961 | 345 |1737 | 530 |  4 |   0 |   0 | 2.711995e+04 |      --      |    Inf | unknown
  1.6s|     1 |     0 |  3028 |     - |    21M |   0 | 961 | 345 |1862 | 655 |  5 |   0 |   0 | 2.719943e+04 |      --      |    Inf | unknown
  2.0s|     1 |     0 |  3326 |     - |    23M |   0 | 961 | 345 |1979 | 772 |  6 |   0 |   0 | 2.723610e+04 |      --      |    Inf | unknown
  2.3s|     1 |     0 |  3614 |     - |    25M |   0 | 961 | 345 |2096 | 889 |  7 |   0 |   0 | 2.724277e+04 |      --      |    Inf | unknown
  2.6s|     1 |     0 |  3832 |     - |    25M |   0 | 961 | 345 |2208 |1001 |  8 |   0 |   0 | 2.724794e+04 |      --      |    Inf | unknown
  2.9s|     1 |     0 |  4439 |     - |    27M |   0 | 961 | 345 |2311 |1104 |  9 |   0 |   0 | 2.733776e+04 |      --      |    Inf | unknown
  3.2s|     1 |     0 |  5084 |     - |    28M |   0 | 961 | 345 |1842 |1202 | 10 |   0 |   0 | 2.741440e+04 |      --      |    Inf | unknown
  3.6s|     1 |     0 |  5413 |     - |    28M |   0 | 961 | 345 |1940 |1300 | 11 |   0 |   0 | 2.747744e+04 |      --      |    Inf | unknown
  3.9s|     1 |     0 |  6023 |     - |    29M |   0 | 961 | 345 |2037 |1397 | 12 |   0 |   0 | 2.758015e+04 |      --      |    Inf | unknown
 time | node  | left  |LP iter|LP it/n|mem/heur|mdpt |vars |cons |rows |cuts |sepa|confs|strbr|  dualbound   | primalbound  |  gap   | compl. 
  4.2s|     1 |     0 |  6789 |     - |    29M |   0 | 961 | 345 |2127 |1487 | 13 |   0 |   0 | 2.772222e+04 |      --      |    Inf | unknown
  4.6s|     1 |     0 |  7232 |     - |    32M |   0 | 961 | 345 |2224 |1584 | 14 |   0 |   0 | 2.774053e+04 |      --      |    Inf | unknown
  5.0s|     1 |     0 |  8079 |     - |    32M |   0 | 961 | 345 |2322 |1682 | 15 |   0 |   0 | 2.783820e+04 |      --      |    Inf | unknown
  5.3s|     1 |     0 |  8480 |     - |    32M |   0 | 961 | 345 |1884 |1776 | 16 |   0 |   0 | 2.786785e+04 |      --      |    Inf | unknown
  5.6s|     1 |     0 |  8789 |     - |    33M |   0 | 961 | 345 |1977 |1869 | 17 |   0 |   0 | 2.787894e+04 |      --      |    Inf | unknown
  5.9s|     1 |     0 |  9387 |     - |    33M |   0 | 961 | 345 |2074 |1966 | 18 |   0 |   0 | 2.800474e+04 |      --      |    Inf | unknown
  6.1s|     1 |     0 |  9789 |     - |    33M |   0 | 961 | 345 |2162 |2054 | 19 |   0 |   0 | 2.803064e+04 |      --      |    Inf | unknown
  6.5s|     1 |     0 | 10526 |     - |    33M |   0 | 961 | 345 |2255 |2147 | 20 |   0 |   0 | 2.817686e+04 |      --      |    Inf | unknown
  6.8s|     1 |     0 | 11350 |     - |    33M |   0 | 961 | 345 |2347 |2239 | 21 |   0 |   0 | 2.822833e+04 |      --      |    Inf | unknown
  7.0s|     1 |     0 | 12638 |     - |    33M |   0 | 961 | 345 |1757 |2323 | 22 |   0 |   0 | 2.831899e+04 |      --      |    Inf | unknown
  7.0s|     1 |     0 | 12638 |     - |    33M |   0 | 961 | 345 |1757 |2323 | 22 |   0 |   0 | 2.831899e+04 |      --      |    Inf | unknown
  7.3s|     1 |     0 | 14510 |     - |    34M |   0 | 961 | 345 |1847 |2413 | 23 |   0 |   0 | 2.838064e+04 |      --      |    Inf | unknown
  7.6s|     1 |     0 | 15771 |     - |    34M |   0 | 961 | 345 |1923 |2489 | 24 |   0 |   0 | 2.847030e+04 |      --      |    Inf | unknown
  7.8s|     1 |     0 | 16958 |     - |    34M |   0 | 961 | 345 |2004 |2570 | 25 |   0 |   0 | 2.860353e+04 |      --      |    Inf | unknown
  7.9s|     1 |     0 | 17985 |     - |    35M |   0 | 961 | 345 |2083 |2649 | 26 |   0 |   0 | 2.884266e+04 |      --      |    Inf | unknown
 time | node  | left  |LP iter|LP it/n|mem/heur|mdpt |vars |cons |rows |cuts |sepa|confs|strbr|  dualbound   | primalbound  |  gap   | compl. 
  8.1s|     1 |     0 | 18849 |     - |    35M |   0 | 961 | 345 |2155 |2721 | 27 |   0 |   0 | 2.892653e+04 |      --      |    Inf | unknown
  8.2s|     1 |     0 | 19752 |     - |    35M |   0 | 961 | 345 |1648 |2791 | 28 |   0 |   0 | 2.905653e+04 |      --      |    Inf | unknown
  8.3s|     1 |     0 | 20539 |     - |    35M |   0 | 961 | 345 |1734 |2877 | 29 |   0 |   0 | 2.914102e+04 |      --      |    Inf | unknown
  8.4s|     1 |     0 | 22034 |     - |    35M |   0 | 961 | 345 |1809 |2952 | 30 |   0 |   0 | 2.985972e+04 |      --      |    Inf | unknown
  8.4s|     1 |     0 | 22034 |     - |    35M |   0 | 961 | 345 |1809 |2952 | 30 |   0 |   0 | 2.985972e+04 |      --      |    Inf | unknown
  8.5s|     1 |     0 | 23108 |     - |    35M |   0 | 961 | 345 |1883 |3026 | 31 |   0 |   0 | 2.999108e+04 |      --      |    Inf | unknown
  8.7s|     1 |     0 | 25122 |     - |    35M |   0 | 961 | 345 |1957 |3100 | 32 |   0 |   0 | 3.259525e+04 |      --      |    Inf | unknown
  8.7s|     1 |     0 | 25122 |     - |    35M |   0 | 961 | 345 |1957 |3100 | 32 |   0 |   0 | 3.259525e+04 |      --      |    Inf | unknown
  8.8s|     1 |     0 | 27645 |     - |    35M |   0 | 961 | 345 |2030 |3173 | 33 |   0 |   0 | 3.310532e+04 |      --      |    Inf | unknown
  8.9s|     1 |     0 | 28735 |     - |    35M |   0 | 961 | 345 |1511 |3247 | 34 |   0 |   0 | 3.322622e+04 |      --      |    Inf | unknown
  9.0s|     1 |     0 | 29189 |     - |    35M |   0 | 961 | 345 |1581 |3317 | 35 |   0 |   0 | 3.333606e+04 |      --      |    Inf | unknown
  9.0s|     1 |     0 | 30049 |     - |    35M |   0 | 961 | 345 |1650 |3386 | 36 |   0 |   0 | 3.344055e+04 |      --      |    Inf | unknown
  9.1s|     1 |     0 | 30908 |     - |    35M |   0 | 961 | 345 |1719 |3455 | 37 |   0 |   0 | 3.360837e+04 |      --      |    Inf | unknown
  9.1s|     1 |     0 | 31304 |     - |    35M |   0 | 961 | 345 |1789 |3525 | 38 |   0 |   0 | 3.367813e+04 |      --      |    Inf | unknown
  9.3s|     1 |     0 | 33252 |     - |    35M |   0 | 961 | 345 |1856 |3592 | 39 |   0 |   0 | 3.401388e+04 |      --      |    Inf | unknown
 time | node  | left  |LP iter|LP it/n|mem/heur|mdpt |vars |cons |rows |cuts |sepa|confs|strbr|  dualbound   | primalbound  |  gap   | compl. 
  9.3s|     1 |     0 | 33761 |     - |    35M |   0 | 961 | 345 |1424 |3659 | 40 |   0 |   0 | 3.409307e+04 |      --      |    Inf | unknown
  9.4s|     1 |     0 | 35233 |     - |    35M |   0 | 961 | 345 |1491 |3726 | 41 |   0 |   0 | 3.464548e+04 |      --      |    Inf | unknown
  9.4s|     1 |     0 | 35233 |     - |    35M |   0 | 961 | 345 |1491 |3726 | 41 |   0 |   0 | 3.464548e+04 |      --      |    Inf | unknown
  9.4s|     1 |     0 | 35753 |     - |    35M |   0 | 961 | 345 |1571 |3806 | 42 |   0 |   0 | 3.473626e+04 |      --      |    Inf | unknown
  9.5s|     1 |     0 | 36633 |     - |    35M |   0 | 961 | 345 |1648 |3883 | 43 |   0 |   0 | 3.486335e+04 |      --      |    Inf | unknown
  9.5s|     1 |     0 | 37089 |     - |    35M |   0 | 961 | 345 |1718 |3953 | 44 |   0 |   0 | 3.489725e+04 |      --      |    Inf | unknown
  9.6s|     1 |     0 | 37823 |     - |    35M |   0 | 961 | 345 |1785 |4020 | 45 |   0 |   0 | 3.502626e+04 |      --      |    Inf | unknown
  9.6s|     1 |     0 | 39022 |     - |    35M |   0 | 961 | 345 |1402 |4090 | 46 |   0 |   0 | 3.531583e+04 |      --      |    Inf | unknown
  9.8s|     1 |     0 | 41232 |     - |    35M |   0 | 961 | 345 |1470 |4158 | 47 |   0 |   0 | 3.559966e+04 |      --      |    Inf | unknown
  9.8s|     1 |     0 | 42369 |     - |    35M |   0 | 961 | 345 |1546 |4234 | 48 |   0 |   0 | 3.619465e+04 |      --      |    Inf | unknown
  9.9s|     1 |     0 | 42712 |     - |    35M |   0 | 961 | 345 |1616 |4304 | 49 |   0 |   0 | 3.629839e+04 |      --      |    Inf | unknown
  9.9s|     1 |     0 | 42712 |     - |    35M |   0 | 961 | 345 |1616 |4304 | 49 |   0 |   0 | 3.629839e+04 |      --      |    Inf | unknown
  9.9s|     1 |     0 | 43193 |     - |    35M |   0 | 961 | 345 |1681 |4369 | 50 |   0 |   0 | 3.644716e+04 |      --      |    Inf | unknown
  9.9s|     1 |     0 | 43354 |     - |    35M |   0 | 961 | 345 |1747 |4435 | 51 |   0 |   0 | 3.649474e+04 |      --      |    Inf | unknown
 10.0s|     1 |     0 | 43989 |     - |    35M |   0 | 961 | 345 |1374 |4500 | 52 |   0 |   0 | 3.663559e+04 |      --      |    Inf | unknown
 time | node  | left  |LP iter|LP it/n|mem/heur|mdpt |vars |cons |rows |cuts |sepa|confs|strbr|  dualbound   | primalbound  |  gap   | compl. 
 10.0s|     1 |     0 | 44757 |     - |    35M |   0 | 961 | 345 |1436 |4562 | 53 |   0 |   0 | 3.682254e+04 |      --      |    Inf | unknown
 10.0s|     1 |     0 | 45238 |     - |    35M |   0 | 961 | 345 |1500 |4626 | 54 |   0 |   0 | 3.688757e+04 |      --      |    Inf | unknown
 10.1s|     1 |     0 | 46120 |     - |    35M |   0 | 961 | 345 |1564 |4690 | 55 |   0 |   0 | 3.711768e+04 |      --      |    Inf | unknown
 10.1s|     1 |     0 | 46715 |     - |    35M |   0 | 961 | 345 |1631 |4757 | 56 |   0 |   0 | 3.721786e+04 |      --      |    Inf | unknown
 10.2s|     1 |     0 | 47614 |     - |    35M |   0 | 961 | 345 |1697 |4823 | 57 |   0 |   0 | 3.733447e+04 |      --      |    Inf | unknown
 10.2s|     1 |     0 | 48142 |     - |    35M |   0 | 961 | 345 |1276 |4888 | 58 |   0 |   0 | 3.746279e+04 |      --      |    Inf | unknown
 10.3s|     1 |     0 | 48690 |     - |    35M |   0 | 961 | 345 |1335 |4947 | 59 |   0 |   0 | 3.783914e+04 |      --      |    Inf | unknown
 10.3s|     1 |     0 | 48771 |     - |    35M |   0 | 961 | 345 |1403 |5015 | 60 |   0 |   0 | 3.784335e+04 |      --      |    Inf | unknown
 10.3s|     1 |     0 | 49674 |     - |    35M |   0 | 961 | 345 |1466 |5078 | 61 |   0 |   0 | 3.796246e+04 |      --      |    Inf | unknown
 10.4s|     1 |     0 | 50352 |     - |    35M |   0 | 961 | 345 |1525 |5137 | 62 |   0 |   0 | 3.799694e+04 |      --      |    Inf | unknown
 10.4s|     1 |     0 | 50450 |     - |    35M |   0 | 961 | 345 |1580 |5192 | 63 |   0 |   0 | 3.800049e+04 |      --      |    Inf | unknown
 10.4s|     1 |     0 | 50811 |     - |    35M |   0 | 961 | 345 |1297 |5247 | 64 |   0 |   0 | 3.805491e+04 |      --      |    Inf | unknown
 10.4s|     1 |     0 | 50811 |     - |    35M |   0 | 961 | 345 |1297 |5247 | 64 |   0 |   0 | 3.805491e+04 |      --      |    Inf | unknown
 10.5s|     1 |     0 | 51864 |     - |    35M |   0 | 961 | 345 |1355 |5305 | 65 |   0 |   0 | 3.815239e+04 |      --      |    Inf | unknown
 10.6s|     1 |     0 | 52932 |     - |    35M |   0 | 961 | 345 |1409 |5359 | 66 |   0 |   0 | 3.943846e+04 |      --      |    Inf | unknown
 time | node  | left  |LP iter|LP it/n|mem/heur|mdpt |vars |cons |rows |cuts |sepa|confs|strbr|  dualbound   | primalbound  |  gap   | compl. 
 10.6s|     1 |     0 | 53145 |     - |    35M |   0 | 961 | 345 |1471 |5421 | 67 |   0 |   0 | 3.947013e+04 |      --      |    Inf | unknown
 10.6s|     1 |     0 | 53655 |     - |    35M |   0 | 961 | 345 |1534 |5484 | 68 |   0 |   0 | 3.959466e+04 |      --      |    Inf | unknown
 10.6s|     1 |     0 | 53851 |     - |    35M |   0 | 961 | 345 |1593 |5543 | 69 |   0 |   0 | 3.960915e+04 |      --      |    Inf | unknown
 10.7s|     1 |     0 | 54117 |     - |    35M |   0 | 961 | 345 |1238 |5596 | 70 |   0 |   0 | 3.962863e+04 |      --      |    Inf | unknown
 10.7s|     1 |     0 | 54894 |     - |    35M |   0 | 961 | 345 |1295 |5653 | 71 |   0 |   0 | 3.982930e+04 |      --      |    Inf | unknown
 10.7s|     1 |     0 | 55281 |     - |    35M |   0 | 961 | 345 |1360 |5718 | 72 |   0 |   0 | 3.991980e+04 |      --      |    Inf | unknown
 10.7s|     1 |     0 | 55281 |     - |    35M |   0 | 961 | 345 |1360 |5718 | 72 |   0 |   0 | 3.991980e+04 |      --      |    Inf | unknown
 10.8s|     1 |     0 | 55858 |     - |    35M |   0 | 961 | 345 |1423 |5781 | 73 |   0 |   0 | 3.994498e+04 |      --      |    Inf | unknown
 10.8s|     1 |     0 | 56258 |     - |    35M |   0 | 961 | 345 |1481 |5839 | 74 |   0 |   0 | 3.996425e+04 |      --      |    Inf | unknown
 10.8s|     1 |     0 | 56737 |     - |    35M |   0 | 961 | 345 |1533 |5891 | 75 |   0 |   0 | 4.000072e+04 |      --      |    Inf | unknown
 10.8s|     1 |     0 | 57239 |     - |    35M |   0 | 961 | 345 |1250 |5947 | 76 |   0 |   0 | 4.003715e+04 |      --      |    Inf | unknown
 10.9s|     1 |     0 | 57614 |     - |    35M |   0 | 961 | 345 |1304 |6001 | 77 |   0 |   0 | 4.007651e+04 |      --      |    Inf | unknown
 10.9s|     1 |     0 | 57921 |     - |    35M |   0 | 961 | 345 |1355 |6052 | 78 |   0 |   0 | 4.012848e+04 |      --      |    Inf | unknown
 10.9s|     1 |     0 | 58662 |     - |    35M |   0 | 961 | 345 |1401 |6098 | 79 |   0 |   0 | 4.017821e+04 |      --      |    Inf | unknown
 10.9s|     1 |     0 | 58897 |     - |    35M |   0 | 961 | 345 |1448 |6145 | 80 |   0 |   0 | 4.021793e+04 |      --      |    Inf | unknown
 time | node  | left  |LP iter|LP it/n|mem/heur|mdpt |vars |cons |rows |cuts |sepa|confs|strbr|  dualbound   | primalbound  |  gap   | compl. 
 10.9s|     1 |     0 | 58987 |     - |    35M |   0 | 961 | 345 |1501 |6198 | 81 |   0 |   0 | 4.023319e+04 |      --      |    Inf | unknown
 11.0s|     1 |     0 | 59316 |     - |    35M |   0 | 961 | 345 |1191 |6255 | 82 |   0 |   0 | 4.025654e+04 |      --      |    Inf | unknown
 11.0s|     1 |     0 | 59621 |     - |    35M |   0 | 961 | 345 |1243 |6307 | 83 |   0 |   0 | 4.039388e+04 |      --      |    Inf | unknown
 11.0s|     1 |     0 | 59727 |     - |    35M |   0 | 961 | 345 |1300 |6364 | 84 |   0 |   0 | 4.039613e+04 |      --      |    Inf | unknown
 11.0s|     1 |     0 | 59868 |     - |    35M |   0 | 961 | 345 |1353 |6417 | 85 |   0 |   0 | 4.040084e+04 |      --      |    Inf | unknown
 11.0s|     1 |     0 | 59993 |     - |    35M |   0 | 961 | 345 |1404 |6468 | 86 |   0 |   0 | 4.040497e+04 |      --      |    Inf | unknown
 11.1s|     1 |     0 | 60988 |     - |    35M |   0 | 961 | 345 |1445 |6509 | 87 |   0 |   0 | 4.045389e+04 |      --      |    Inf | unknown
 11.1s|     1 |     0 | 61060 |     - |    35M |   0 | 961 | 345 |1145 |6554 | 88 |   0 |   0 | 4.045544e+04 |      --      |    Inf | unknown
 11.1s|     1 |     0 | 61160 |     - |    35M |   0 | 961 | 345 |1181 |6590 | 89 |   0 |   0 | 4.046338e+04 |      --      |    Inf | unknown
 11.2s|     1 |     0 | 61894 |     - |    35M |   0 | 961 | 345 |1218 |6627 | 90 |   0 |   0 | 4.047511e+04 |      --      |    Inf | unknown
 11.2s|     1 |     0 | 62481 |     - |    35M |   0 | 961 | 345 |1256 |6665 | 91 |   0 |   0 | 4.058222e+04 |      --      |    Inf | unknown
 11.2s|     1 |     0 | 62621 |     - |    35M |   0 | 961 | 345 |1303 |6712 | 92 |   0 |   0 | 4.058366e+04 |      --      |    Inf | unknown
 11.2s|     1 |     0 | 63247 |     - |    35M |   0 | 961 | 345 |1347 |6756 | 93 |   0 |   0 | 4.059888e+04 |      --      |    Inf | unknown
 11.3s|     1 |     0 | 64897 |     - |    35M |   0 | 961 | 345 |1121 |6812 | 94 |   0 |   0 | 4.070331e+04 |      --      |    Inf | unknown
 11.3s|     1 |     0 | 65007 |     - |    35M |   0 | 961 | 345 |1175 |6866 | 95 |   0 |   0 | 4.070440e+04 |      --      |    Inf | unknown
 time | node  | left  |LP iter|LP it/n|mem/heur|mdpt |vars |cons |rows |cuts |sepa|confs|strbr|  dualbound   | primalbound  |  gap   | compl. 
 11.3s|     1 |     0 | 65198 |     - |    35M |   0 | 961 | 345 |1215 |6906 | 96 |   0 |   0 | 4.071320e+04 |      --      |    Inf | unknown
 11.3s|     1 |     0 | 65252 |     - |    35M |   0 | 961 | 345 |1263 |6954 | 97 |   0 |   0 | 4.071486e+04 |      --      |    Inf | unknown
 11.3s|     1 |     0 | 65336 |     - |    35M |   0 | 961 | 345 |1325 |7016 | 98 |   0 |   0 | 4.071634e+04 |      --      |    Inf | unknown
 11.4s|     1 |     0 | 65408 |     - |    35M |   0 | 961 | 345 |1368 |7059 | 99 |   0 |   0 | 4.072501e+04 |      --      |    Inf | unknown
 11.4s|     1 |     0 | 65631 |     - |    35M |   0 | 961 | 345 |1148 |7104 |100 |   0 |   0 | 4.073104e+04 |      --      |    Inf | unknown
 11.4s|     1 |     0 | 66253 |     - |    35M |   0 | 961 | 345 |1192 |7148 |101 |   0 |   0 | 4.077288e+04 |      --      |    Inf | unknown
 11.4s|     1 |     0 | 66385 |     - |    35M |   0 | 961 | 345 |1245 |7201 |102 |   0 |   0 | 4.077381e+04 |      --      |    Inf | unknown
 11.4s|     1 |     0 | 66464 |     - |    35M |   0 | 961 | 345 |1294 |7250 |103 |   0 |   0 | 4.077394e+04 |      --      |    Inf | unknown
 11.5s|     1 |     0 | 67326 |     - |    35M |   0 | 961 | 345 |1336 |7292 |104 |   0 |   0 | 4.084228e+04 |      --      |    Inf | unknown
 11.5s|     1 |     0 | 67928 |     - |    35M |   0 | 961 | 345 |1393 |7349 |105 |   0 |   0 | 4.085047e+04 |      --      |    Inf | unknown
 11.6s|     1 |     0 | 68716 |     - |    35M |   0 | 961 | 345 |1131 |7398 |106 |   0 |   0 | 4.088549e+04 |      --      |    Inf | unknown
 11.6s|     1 |     0 | 68885 |     - |    35M |   0 | 961 | 345 |1184 |7451 |107 |   0 |   0 | 4.088635e+04 |      --      |    Inf | unknown
 11.6s|     1 |     0 | 69631 |     - |    35M |   0 | 961 | 345 |1238 |7505 |108 |   0 |   0 | 4.089668e+04 |      --      |    Inf | unknown
 11.7s|     1 |     0 | 69797 |     - |    35M |   0 | 961 | 345 |1281 |7548 |109 |   0 |   0 | 4.089727e+04 |      --      |    Inf | unknown
 11.7s|     1 |     0 | 70606 |     - |    35M |   0 | 961 | 345 |1313 |7580 |110 |   0 |   0 | 4.091212e+04 |      --      |    Inf | unknown
 time | node  | left  |LP iter|LP it/n|mem/heur|mdpt |vars |cons |rows |cuts |sepa|confs|strbr|  dualbound   | primalbound  |  gap   | compl. 
 11.7s|     1 |     0 | 70641 |     - |    35M |   0 | 961 | 345 |1348 |7615 |111 |   0 |   0 | 4.091212e+04 |      --      |    Inf | unknown
 11.7s|     1 |     0 | 70994 |     - |    35M |   0 | 961 | 345 |1100 |7644 |112 |   0 |   0 | 4.092167e+04 |      --      |    Inf | unknown
 11.7s|     1 |     0 | 71085 |     - |    35M |   0 | 961 | 345 |1138 |7682 |113 |   0 |   0 | 4.092299e+04 |      --      |    Inf | unknown
 11.8s|     1 |     0 | 71328 |     - |    35M |   0 | 961 | 345 |1169 |7713 |114 |   0 |   0 | 4.093296e+04 |      --      |    Inf | unknown
 11.8s|     1 |     0 | 72357 |     - |    35M |   0 | 961 | 345 |1200 |7744 |115 |   0 |   0 | 4.093884e+04 |      --      |    Inf | unknown
 11.8s|     1 |     0 | 72470 |     - |    35M |   0 | 961 | 345 |1244 |7788 |116 |   0 |   0 | 4.093943e+04 |      --      |    Inf | unknown
 11.9s|     1 |     0 | 73187 |     - |    35M |   0 | 961 | 345 |1269 |7813 |117 |   0 |   0 | 4.099922e+04 |      --      |    Inf | unknown
 11.9s|     1 |     0 | 73515 |     - |    35M |   0 | 961 | 345 |1052 |7868 |118 |   0 |   0 | 4.100451e+04 |      --      |    Inf | unknown
 11.9s|     1 |     0 | 73597 |     - |    35M |   0 | 961 | 345 |1099 |7915 |119 |   0 |   0 | 4.100603e+04 |      --      |    Inf | unknown
 11.9s|     1 |     0 | 73779 |     - |    35M |   0 | 961 | 345 |1152 |7968 |120 |   0 |   0 | 4.100745e+04 |      --      |    Inf | unknown
 11.9s|     1 |     0 | 74114 |     - |    35M |   0 | 961 | 345 |1209 |8025 |121 |   0 |   0 | 4.100983e+04 |      --      |    Inf | unknown
 12.0s|     1 |     0 | 74448 |     - |    35M |   0 | 961 | 345 |1258 |8074 |122 |   0 |   0 | 4.101150e+04 |      --      |    Inf | unknown
 12.0s|     1 |     0 | 74986 |     - |    35M |   0 | 961 | 345 |1304 |8120 |123 |   0 |   0 | 4.101321e+04 |      --      |    Inf | unknown
 12.1s|     1 |     0 | 75625 |     - |    35M |   0 | 961 | 345 |1118 |8158 |124 |   0 |   0 | 4.101635e+04 |      --      |    Inf | unknown
 12.1s|     1 |     0 | 75792 |     - |    35M |   0 | 961 | 345 |1160 |8200 |125 |   0 |   0 | 4.101665e+04 |      --      |    Inf | unknown
 time | node  | left  |LP iter|LP it/n|mem/heur|mdpt |vars |cons |rows |cuts |sepa|confs|strbr|  dualbound   | primalbound  |  gap   | compl. 
 12.1s|     1 |     0 | 76102 |     - |    35M |   0 | 961 | 345 |1194 |8234 |126 |   0 |   0 | 4.102246e+04 |      --      |    Inf | unknown
 12.1s|     1 |     0 | 76306 |     - |    35M |   0 | 961 | 345 |1236 |8276 |127 |   0 |   0 | 4.102416e+04 |      --      |    Inf | unknown
 12.1s|     1 |     0 | 76344 |     - |    35M |   0 | 961 | 345 |1274 |8314 |128 |   0 |   0 | 4.102422e+04 |      --      |    Inf | unknown
 12.2s|     1 |     0 | 76960 |     - |    35M |   0 | 961 | 345 |1301 |8341 |129 |   0 |   0 | 4.104037e+04 |      --      |    Inf | unknown
 12.2s|     1 |     0 | 77019 |     - |    35M |   0 | 961 | 345 |1070 |8384 |130 |   0 |   0 | 4.104051e+04 |      --      |    Inf | unknown
 12.2s|     1 |     0 | 77180 |     - |    35M |   0 | 961 | 345 |1109 |8423 |131 |   0 |   0 | 4.105003e+04 |      --      |    Inf | unknown
 12.2s|     1 |     0 | 77301 |     - |    35M |   0 | 961 | 345 |1153 |8467 |132 |   0 |   0 | 4.105079e+04 |      --      |    Inf | unknown
 12.3s|     1 |     0 | 78994 |     - |    35M |   0 | 961 | 345 |1194 |8508 |133 |   0 |   0 | 4.106269e+04 |      --      |    Inf | unknown
 12.3s|     1 |     0 | 79617 |     - |    35M |   0 | 961 | 345 |1236 |8550 |134 |   0 |   0 | 4.107478e+04 |      --      |    Inf | unknown
 12.3s|     1 |     0 | 79757 |     - |    35M |   0 | 961 | 345 |1278 |8592 |135 |   0 |   0 | 4.107497e+04 |      --      |    Inf | unknown
 12.3s|     1 |     0 | 79906 |     - |    35M |   0 | 961 | 345 |1057 |8633 |136 |   0 |   0 | 4.107534e+04 |      --      |    Inf | unknown
 12.4s|     1 |     0 | 80133 |     - |    35M |   0 | 961 | 345 |1101 |8677 |137 |   0 |   0 | 4.107921e+04 |      --      |    Inf | unknown
 12.4s|     1 |     0 | 80180 |     - |    35M |   0 | 961 | 345 |1139 |8715 |138 |   0 |   0 | 4.107922e+04 |      --      |    Inf | unknown
 12.4s|     1 |     0 | 80864 |     - |    35M |   0 | 961 | 345 |1176 |8752 |139 |   0 |   0 | 4.109219e+04 |      --      |    Inf | unknown
 12.4s|     1 |     0 | 81410 |     - |    35M |   0 | 961 | 345 |1219 |8795 |140 |   0 |   0 | 4.109310e+04 |      --      |    Inf | unknown
 time | node  | left  |LP iter|LP it/n|mem/heur|mdpt |vars |cons |rows |cuts |sepa|confs|strbr|  dualbound   | primalbound  |  gap   | compl. 
 12.5s|     1 |     0 | 82078 |     - |    35M |   0 | 961 | 345 |1257 |8833 |141 |   0 |   0 | 4.109604e+04 |      --      |    Inf | unknown
 12.5s|     1 |     0 | 82931 |     - |    35M |   0 | 961 | 345 |1076 |8862 |142 |   0 |   0 | 4.109937e+04 |      --      |    Inf | unknown
 12.5s|     1 |     0 | 83057 |     - |    35M |   0 | 961 | 345 |1119 |8905 |143 |   0 |   0 | 4.110030e+04 |      --      |    Inf | unknown
 12.5s|     1 |     0 | 83203 |     - |    35M |   0 | 961 | 345 |1166 |8952 |144 |   0 |   0 | 4.110079e+04 |      --      |    Inf | unknown
 12.5s|     1 |     0 | 83279 |     - |    35M |   0 | 961 | 345 |1207 |8993 |145 |   0 |   0 | 4.110084e+04 |      --      |    Inf | unknown
 12.6s|     1 |     0 | 83313 |     - |    35M |   0 | 961 | 345 |1243 |9029 |146 |   0 |   0 | 4.110084e+04 |      --      |    Inf | unknown
 12.7s|     1 |     0 | 85274 |     - |    35M |   0 | 961 | 345 |1263 |9049 |147 |   0 |   0 | 4.112664e+04 |      --      |    Inf | unknown
 12.7s|     1 |     0 | 85824 |     - |    35M |   0 | 961 | 345 |1062 |9098 |148 |   0 |   0 | 4.112752e+04 |      --      |    Inf | unknown
 12.7s|     1 |     0 | 85969 |     - |    35M |   0 | 961 | 345 |1110 |9146 |149 |   0 |   0 | 4.112924e+04 |      --      |    Inf | unknown
 12.7s|     1 |     0 | 86582 |     - |    35M |   0 | 961 | 345 |1159 |9195 |150 |   0 |   0 | 4.112976e+04 |      --      |    Inf | unknown
 12.8s|     1 |     0 | 86860 |     - |    35M |   0 | 961 | 345 |1203 |9239 |151 |   0 |   0 | 4.112983e+04 |      --      |    Inf | unknown
 12.8s|     1 |     0 | 86894 |     - |    35M |   0 | 961 | 345 |1238 |9274 |152 |   0 |   0 | 4.112983e+04 |      --      |    Inf | unknown
 12.8s|     1 |     0 | 87777 |     - |    35M |   0 | 961 | 345 |1254 |9290 |153 |   0 |   0 | 4.113567e+04 |      --      |    Inf | unknown
 12.8s|     1 |     0 | 88654 |     - |    35M |   0 | 961 | 345 |1020 |9325 |154 |   0 |   0 | 4.113832e+04 |      --      |    Inf | unknown
 12.9s|     1 |     0 | 88767 |     - |    35M |   0 | 961 | 345 |1055 |9360 |155 |   0 |   0 | 4.114043e+04 |      --      |    Inf | unknown
 time | node  | left  |LP iter|LP it/n|mem/heur|mdpt |vars |cons |rows |cuts |sepa|confs|strbr|  dualbound   | primalbound  |  gap   | compl. 
 12.9s|     1 |     0 | 88885 |     - |    35M |   0 | 961 | 345 |1093 |9398 |156 |   0 |   0 | 4.114237e+04 |      --      |    Inf | unknown
 12.9s|     1 |     0 | 89030 |     - |    35M |   0 | 961 | 345 |1135 |9440 |157 |   0 |   0 | 4.114255e+04 |      --      |    Inf | unknown
 12.9s|     1 |     0 | 89074 |     - |    35M |   0 | 961 | 345 |1175 |9480 |158 |   0 |   0 | 4.114256e+04 |      --      |    Inf | unknown
 12.9s|     1 |     0 | 89256 |     - |    35M |   0 | 961 | 345 |1193 |9498 |159 |   0 |   0 | 4.114274e+04 |      --      |    Inf | unknown
 12.9s|     1 |     0 | 89795 |     - |    35M |   0 | 961 | 345 |1001 |9536 |160 |   0 |   0 | 4.114535e+04 |      --      |    Inf | unknown
 13.0s|     1 |     0 | 89833 |     - |    35M |   0 | 961 | 345 |1036 |9571 |161 |   0 |   0 | 4.114535e+04 |      --      |    Inf | unknown
 13.0s|     1 |     0 | 90025 |     - |    35M |   0 | 961 | 345 |1052 |9587 |162 |   0 |   0 | 4.115716e+04 |      --      |    Inf | unknown
 13.0s|     1 |     0 | 90147 |     - |    35M |   0 | 961 | 345 |1105 |9640 |163 |   0 |   0 | 4.115760e+04 |      --      |    Inf | unknown
 13.0s|     1 |     0 | 90187 |     - |    35M |   0 | 961 | 345 |1146 |9681 |164 |   0 |   0 | 4.115760e+04 |      --      |    Inf | unknown
 13.0s|     1 |     0 | 90320 |     - |    35M |   0 | 961 | 345 |1167 |9702 |165 |   0 |   0 | 4.115792e+04 |      --      |    Inf | unknown
 13.0s|     1 |     0 | 90361 |     - |    35M |   0 | 961 | 345 | 969 |9741 |166 |   0 |   0 | 4.115792e+04 |      --      |    Inf | unknown
 13.0s|     1 |     0 | 90461 |     - |    35M |   0 | 961 | 345 | 989 |9761 |167 |   0 |   0 | 4.115803e+04 |      --      |    Inf | unknown
 13.0s|     1 |     0 | 90501 |     - |    35M |   0 | 961 | 345 |1031 |9803 |168 |   0 |   0 | 4.115803e+04 |      --      |    Inf | unknown
 13.1s|     1 |     0 | 90768 |     - |    35M |   0 | 961 | 345 |1045 |9817 |169 |   0 |   0 | 4.116441e+04 |      --      |    Inf | unknown
 13.1s|     1 |     0 | 90864 |     - |    35M |   0 | 961 | 345 |1100 |9872 |170 |   0 |   0 | 4.116454e+04 |      --      |    Inf | unknown
 time | node  | left  |LP iter|LP it/n|mem/heur|mdpt |vars |cons |rows |cuts |sepa|confs|strbr|  dualbound   | primalbound  |  gap   | compl. 
 13.1s|     1 |     0 | 90992 |     - |    35M |   0 | 961 | 345 | 973 |9915 |171 |   0 |   0 | 4.116478e+04 |      --      |    Inf | unknown
 13.1s|     1 |     0 | 91039 |     - |    35M |   0 | 961 | 345 |1022 |9964 |172 |   0 |   0 | 4.116478e+04 |      --      |    Inf | unknown
 13.1s|     1 |     0 | 91074 |     - |    35M |   0 | 961 | 345 |1042 |9984 |173 |   0 |   0 | 4.116513e+04 |      --      |    Inf | unknown
 13.1s|     1 |     0 | 91117 |     - |    35M |   0 | 961 | 345 |1082 |  10k|174 |   0 |   0 | 4.116513e+04 |      --      |    Inf | unknown
 13.1s|     1 |     0 | 91213 |     - |    35M |   0 | 961 | 345 |1100 |  10k|175 |   0 |   0 | 4.116532e+04 |      --      |    Inf | unknown
 13.1s|     1 |     0 | 91392 |     - |    35M |   0 | 961 | 345 |1139 |  10k|176 |   0 |   0 | 4.116722e+04 |      --      |    Inf | unknown
 13.2s|     1 |     0 | 92037 |     - |    35M |   0 | 961 | 345 | 988 |  10k|177 |   0 |   0 | 4.116777e+04 |      --      |    Inf | unknown
 13.2s|     1 |     0 | 92079 |     - |    35M |   0 | 961 | 345 |1029 |  10k|178 |   0 |   0 | 4.116777e+04 |      --      |    Inf | unknown
 13.2s|     1 |     0 | 92180 |     - |    35M |   0 | 961 | 345 |1046 |  10k|179 |   0 |   0 | 4.116830e+04 |      --      |    Inf | unknown
 27.7s|     1 |     0 |232815 |     - |    35M |   0 | 961 | 345 |1046 |  10k|179 |   0 |   0 | 4.116830e+04 |      --      |    Inf | unknown
 27.7s|     1 |     0 |232867 |     - |    35M |   0 | 961 | 345 | 935 |  10k|180 |   0 |   0 | 4.116830e+04 |      --      |    Inf | unknown
 27.7s|     1 |     0 |232899 |     - |    35M |   0 | 961 | 345 | 970 |  10k|181 |   0 |   0 | 4.116830e+04 |      --      |    Inf | unknown
 27.8s|     1 |     0 |232982 |     - |    35M |   0 | 961 | 345 |1001 |  10k|182 |   0 |   0 | 4.117136e+04 |      --      |    Inf | unknown
 27.8s|     1 |     0 |233025 |     - |    35M |   0 | 961 | 345 |1044 |  10k|183 |   0 |   0 | 4.117156e+04 |      --      |    Inf | unknown
 27.8s|     1 |     0 |233055 |     - |    35M |   0 | 961 | 345 |1072 |  10k|184 |   0 |   0 | 4.117188e+04 |      --      |    Inf | unknown
 time | node  | left  |LP iter|LP it/n|mem/heur|mdpt |vars |cons |rows |cuts |sepa|confs|strbr|  dualbound   | primalbound  |  gap   | compl. 
 27.8s|     1 |     0 |233204 |     - |    35M |   0 | 961 | 345 |1087 |  10k|185 |   0 |   0 | 4.117764e+04 |      --      |    Inf | unknown
 27.8s|     1 |     0 |233273 |     - |    35M |   0 | 961 | 345 | 955 |  10k|186 |   0 |   0 | 4.117869e+04 |      --      |    Inf | unknown
 27.8s|     1 |     0 |233312 |     - |    35M |   0 | 961 | 345 |1000 |  10k|187 |   0 |   0 | 4.117898e+04 |      --      |    Inf | unknown
 27.8s|     1 |     0 |233352 |     - |    35M |   0 | 961 | 345 |1040 |  10k|188 |   0 |   0 | 4.117899e+04 |      --      |    Inf | unknown
 27.8s|     1 |     0 |233398 |     - |    35M |   0 | 961 | 345 |1079 |  10k|189 |   0 |   0 | 4.117915e+04 |      --      |    Inf | unknown
 27.8s|     1 |     0 |233486 |     - |    35M |   0 | 961 | 345 |1117 |  10k|190 |   0 |   0 | 4.117931e+04 |      --      |    Inf | unknown
 27.8s|     1 |     0 |233594 |     - |    35M |   0 | 961 | 345 |1164 |  10k|191 |   0 |   0 | 4.117932e+04 |      --      |    Inf | unknown
 27.8s|     1 |     0 |233637 |     - |    35M |   0 | 961 | 345 | 945 |  10k|192 |   0 |   0 | 4.117932e+04 |      --      |    Inf | unknown
 27.8s|     1 |     0 |233695 |     - |    35M |   0 | 961 | 345 | 969 |  10k|193 |   0 |   0 | 4.118104e+04 |      --      |    Inf | unknown
 27.9s|     1 |     0 |233797 |     - |    35M |   0 | 961 | 345 |1010 |  10k|194 |   0 |   0 | 4.118112e+04 |      --      |    Inf | unknown
 27.9s|     1 |     0 |233898 |     - |    35M |   0 | 961 | 345 |1046 |  10k|195 |   0 |   0 | 4.119500e+04 |      --      |    Inf | unknown
 27.9s|     1 |     0 |234008 |     - |    35M |   0 | 961 | 345 |1081 |  10k|196 |   0 |   0 | 4.119557e+04 |      --      |    Inf | unknown
 27.9s|     1 |     0 |234059 |     - |    35M |   0 | 961 | 345 |1125 |  10k|197 |   0 |   0 | 4.119557e+04 |      --      |    Inf | unknown
 27.9s|     1 |     0 |234169 |     - |    35M |   0 | 961 | 345 | 954 |  10k|198 |   0 |   0 | 4.119563e+04 |      --      |    Inf | unknown
 27.9s|     1 |     0 |234214 |     - |    35M |   0 | 961 | 345 | 998 |  10k|199 |   0 |   0 | 4.119563e+04 |      --      |    Inf | unknown
 time | node  | left  |LP iter|LP it/n|mem/heur|mdpt |vars |cons |rows |cuts |sepa|confs|strbr|  dualbound   | primalbound  |  gap   | compl. 
 27.9s|     1 |     0 |234237 |     - |    35M |   0 | 961 | 345 |1023 |  10k|200 |   0 |   0 | 4.119563e+04 |      --      |    Inf | unknown
 27.9s|     1 |     0 |234376 |     - |    35M |   0 | 961 | 345 |1044 |  11k|201 |   0 |   0 | 4.119678e+04 |      --      |    Inf | unknown
 27.9s|     1 |     0 |234415 |     - |    35M |   0 | 961 | 345 |1080 |  11k|202 |   0 |   0 | 4.119678e+04 |      --      |    Inf | unknown
 27.9s|     1 |     0 |234503 |     - |    35M |   0 | 961 | 345 |1097 |  11k|203 |   0 |   0 | 4.119701e+04 |      --      |    Inf | unknown
 27.9s|     1 |     0 |234670 |     - |    35M |   0 | 961 | 345 | 906 |  11k|204 |   0 |   0 | 4.119795e+04 |      --      |    Inf | unknown
 28.0s|     1 |     0 |234719 |     - |    35M |   0 | 961 | 345 | 950 |  11k|205 |   0 |   0 | 4.119798e+04 |      --      |    Inf | unknown
 28.0s|     1 |     0 |234732 |     - |    35M |   0 | 961 | 345 | 963 |  11k|205 |   0 |   0 | 4.119798e+04 |      --      |    Inf | unknown
 28.0s|     1 |     0 |234773 |     - |    35M |   0 | 961 | 345 | 993 |  11k|206 |   0 |   0 | 4.119859e+04 |      --      |    Inf | unknown
 28.0s|     1 |     0 |234785 |     - |    35M |   0 | 961 | 345 |1005 |  11k|207 |   0 |   0 | 4.119860e+04 |      --      |    Inf | unknown
 28.0s|     1 |     0 |234901 |     - |    35M |   0 | 961 | 345 |1028 |  11k|208 |   0 |   0 | 4.120004e+04 |      --      |    Inf | unknown
 28.0s|     1 |     0 |234912 |     - |    35M |   0 | 961 | 345 | 802 |  11k|209 |   0 |   0 | 4.120004e+04 |      --      |    Inf | unknown
 28.0s|     1 |     0 |235022 |     - |    35M |   0 | 961 | 345 | 836 |  11k|210 |   0 |   0 | 4.120097e+04 |      --      |    Inf | unknown
 28.0s|     1 |     0 |235034 |     - |    35M |   0 | 961 | 345 | 848 |  11k|211 |   0 |   0 | 4.120097e+04 |      --      |    Inf | unknown
 28.0s|     1 |     0 |235091 |     - |    35M |   0 | 961 | 345 | 889 |  11k|212 |   0 |   0 | 4.120114e+04 |      --      |    Inf | unknown
 28.0s|     1 |     0 |235100 |     - |    35M |   0 | 961 | 345 | 898 |  11k|213 |   0 |   0 | 4.120114e+04 |      --      |    Inf | unknown
 time | node  | left  |LP iter|LP it/n|mem/heur|mdpt |vars |cons |rows |cuts |sepa|confs|strbr|  dualbound   | primalbound  |  gap   | compl. 
 28.0s|     1 |     0 |235178 |     - |    35M |   0 | 961 | 345 | 935 |  11k|214 |   0 |   0 | 4.120121e+04 |      --      |    Inf | unknown
 28.1s|     1 |     0 |235192 |     - |    35M |   0 | 961 | 345 | 783 |  11k|215 |   0 |   0 | 4.120121e+04 |      --      |    Inf | unknown
 28.1s|     1 |     0 |235225 |     - |    35M |   0 | 961 | 345 | 818 |  11k|216 |   0 |   0 | 4.120121e+04 |      --      |    Inf | unknown
 28.1s|     1 |     2 |235225 |     - |    35M |   0 | 961 | 345 | 818 |  11k|217 |   0 |   0 | 4.120121e+04 |      --      |    Inf | unknown

SCIP Status        : solving was interrupted [node limit reached]
Solving Time (sec) : 28.05
Solving Nodes      : 1
Primal Bound       : +1.00000000000000e+20 (0 solutions)
Dual Bound         : +4.12012124827289e+04
Gap                : infinite


SCIP Status        : solving was interrupted [node limit reached]
Total Time         :      28.05
  solving          :      28.05
  presolving       :       0.04 (included in solving)
  reading          :       0.00
  copying          :       0.00 (1 #copies) (minimal 0.00, maximal 0.00, average 0.00)
Original Problem   :
  Problem name     : powerflow0039r
  Variables        : 284 (0 binary, 0 integer, 284 continuous)
  Implied int vars : 0 (0 binary, 0 integer, 0 continuous)
  Constraints      : 474 initial, 474 maximal
  Objective        : minimize, 12 non-zeros (abs.min = 1, abs.max = 30)
Presolved Problem  :
  Problem name     : t_powerflow0039r
  Variables        : 961 (0 binary, 0 integer, 961 continuous)
  Implied int vars : 0 (0 binary, 0 integer, 0 continuous)
  Constraints      : 345 initial, 345 maximal
  Objective        : minimize, 11 non-zeros (abs.min = 1, abs.max = 30)
  Nonzeros         : 1290 constraint, 0 clique table
Presolvers         :   ExecTime  SetupTime  Calls  FixedVars   AggrVars   ChgTypes  ChgBounds   AddHoles    DelCons    AddCons   ChgSides   ChgCoefs
  boundshift       :       0.00       0.00      0          0          0          0          0          0          0          0          0          0
  convertinttobin  :       0.00       0.00      0          0          0          0          0          0          0          0          0          0
  domcol           :       0.00       0.00      1          0          0          0          0          0          0          0          0          0
  dualagg          :       0.00       0.00      0          0          0          0          0          0          0          0          0          0
  dualcomp         :       0.00       0.00      1          0          0          0          0          0          0          0          0          0
  dualinfer        :       0.00       0.00      0          0          0          0          0          0          0          0          0          0
  dualsparsify     :       0.00       0.00      1          0          0          0          0          0          0          0          0          0
  gateextraction   :       0.00       0.00      0          0          0          0          0          0          0          0          0          0
  implics          :       0.00       0.00      1          0          0          0          0          0          0          0          0          0
  implint          :       0.00       0.00      0          0          0          0          0          0          0          0          0          0
  inttobinary      :       0.00       0.00      0          0          0          0          0          0          0          0          0          0
  qpkktref         :       0.00       0.00      0          0          0          0          0          0          0          0          0          0
  redvub           :       0.00       0.00      0          0          0          0          0          0          0          0          0          0
  sparsify         :       0.00       0.00      1          0          0          0          0          0          0          0          0          0
  stuffing         :       0.00       0.00      0          0          0          0          0          0          0          0          0          0
  trivial          :       0.00       0.00      3          1          0          0          0          0          0          0          0          0
  tworowbnd        :       0.00       0.00      0          0          0          0          0          0          0          0          0          0
  dualfix          :       0.00       0.00      3          0          0          0          0          0          0          0          0          0
  genvbounds       :       0.00       0.00      0          0          0          0          0          0          0          0          0          0
  probing          :       0.00       0.00      0          0          0          0          0          0          0          0          0          0
  pseudoobj        :       0.00       0.00      0          0          0          0          0          0          0          0          0          0
  symmetry         :       0.00       0.00      1          0          0          0          0          0          0          0          0          0
  vbounds          :       0.00       0.00      0          0          0          0          0          0          0          0          0          0
  linear           :       0.00       0.00      4          1         41          0         81          0         81          0          0          0
  nonlinear        :       0.04       0.01      5          0          0          0        470          0          9          0          0          0
  components       :       0.00       0.00      1          0          0          0          0          0          0          0          0          0
  root node        :          -          -      -          0          -          -        542          -          -          -          -          -
Constraints        :     Number  MaxNumber  #Separate #Propagate    #EnfoLP    #EnfoRelax  #EnfoPS    #Check   #ResProp    Cutoffs    DomReds       Cuts    Applied      Conss   Children
  integral         :          0          0          0          0          0          0          0          9          0          0          0          0          0          0          0
  linear           :         38         38        211        188          0          0          0          9          0          0          0          0          0          0          0
  nonlinear        :        307        307        211        188          7          0          0          1          0         32          3       9163       4133          0          2
  fixedvar         :          0          0          0          0          0          0          0          0          0          0          0          0          0          0          0
  countsols        :          0          0          0          0          0          0          0          0          0          0          0          0          0          0          0
  components       :          0          0          0          0          0          0          0          0          0          0          0          0          0          0          0
Constraint Timings :  TotalTime  SetupTime   Separate  Propagate     EnfoLP     EnfoPS     EnfoRelax   Check    ResProp    SB-Prop
  integral         :       0.00       0.00       0.00       0.00       0.00       0.00       0.00       0.00       0.00       0.00
  linear           :       0.00       0.00       0.00       0.00       0.00       0.00       0.00       0.00       0.00       0.00
  nonlinear        :       7.39       0.01       7.33       0.04       0.01       0.00       0.00       0.00       0.00       0.00
  fixedvar         :       0.00       0.00       0.00       0.00       0.00       0.00       0.00       0.00       0.00       0.00
  countsols        :       0.00       0.00       0.00       0.00       0.00       0.00       0.00       0.00       0.00       0.00
  components       :       0.00       0.00       0.00       0.00       0.00       0.00       0.00       0.00       0.00       0.00
Propagators        : #Propagate   #ResProp    Cutoffs    DomReds
  dualfix          :          3          0          0          0
  genvbounds       :          0          0          0          0
  nlobbt           :          0          0          0          0
  obbt             :         16          0          0          0
  probing          :          0          0          0          0
  pseudoobj        :          9          0          0          9
  redcost          :          0          0          0          0
  rootredcost      :          0          0          0          0
  symmetry         :          0          0          0          0
  vbounds          :          0          0          0          0
Propagator Timings :  TotalTime  SetupTime   Presolve  Propagate    ResProp    SB-Prop
  dualfix          :       0.00       0.00       0.00       0.00       0.00       0.00
  genvbounds       :       0.00       0.00       0.00       0.00       0.00       0.00
  nlobbt           :       0.00       0.00       0.00       0.00       0.00       0.00
  obbt             :      14.55       0.00       0.00      14.55       0.00       0.00
  probing          :       0.00       0.00       0.00       0.00       0.00       0.00
  pseudoobj        :       0.00       0.00       0.00       0.00       0.00       0.00
  redcost          :       0.00       0.00       0.00       0.00       0.00       0.00
  rootredcost      :       0.00       0.00       0.00       0.00       0.00       0.00
  symmetry         :       0.00       0.00       0.00       0.00       0.00       0.00
  vbounds          :       0.00       0.00       0.00       0.00       0.00       0.00
Conflict Analysis  :       Time      Calls    Success    DomReds  Conflicts   Literals    Reconvs ReconvLits   Dualrays   Nonzeros   LP Iters   (pool size: [--,--])
  propagation      :       0.00          0          0          -          0        0.0          0        0.0          -          -          -
  infeasible LP    :       0.00          0          0          -          0        0.0          0        0.0          0        0.0          0
  bound exceed. LP :       0.00          0          0          -          0        0.0          0        0.0          0        0.0          0
  strong branching :       0.00          0          0          -          0        0.0          0        0.0          -          -          0
  pseudo solution  :       0.00          0          0          -          0        0.0          0        0.0          -          -          -
  applied globally :       0.00          -          -          0          0        0.0          -          -          0          -          -
  applied locally  :          -          -          -          0          0        0.0          -          -          0          -          -
Gen. Resolution CA :       Time      Calls    Success  Conflicts  LargeCoef  LongConfs    Length
  propagation      :       0.00          0          0          0          0          0       0.0
Separators         :   ExecTime  SetupTime      Calls  RootCalls    Cutoffs    DomReds  FoundCuts ViaPoolAdd  DirectAdd    Applied ViaPoolApp  DirectApp      Conss
  cut pool         :       0.00          -          0          0          -          -          0          0          -          -          -          -          -    (maximal pool size:          0)
  aggregation      :       0.00       0.00          0          0          0          0          0          0          0          0          0          0          0
  > cmir           :          -          -          -          -          -          -          -          0          0          0          0          0          -
  > flowcover      :          -          -          -          -          -          -          -          0          0          0          0          0          -
  > knapsackcover  :          -          -          -          -          -          -          -          0          0          0          0          0          -
  cgmip            :       0.00       0.00          0          0          0          0          0          0          0          0          0          0          0
  clique           :       0.00       0.00          0          0          0          0          0          0          0          0          0          0          0
  closecuts        :       0.00       0.00          0          0          0          0          0          0          0          0          0          0          0
  convexproj       :       0.00       0.00          0          0          0          0          0          0          0          0          0          0          0
  disjunctive      :       0.00       0.00          0          0          0          0          0          0          0          0          0          0          0
  eccuts           :       0.00       0.00          0          0          0          0          0          0          0          0          0          0          0
  flower           :       0.00       0.00        211        211          0          0          0          0          0          0          0          0          0
  gauge            :       0.00       0.00          0          0          0          0          0          0          0          0          0          0          0
  gomory           :       0.00       0.00          0          0          0          0          0          0          0          0          0          0          0
  > gomorymi       :          -          -          -          -          -          -          -          0          0          0          0          0          -
  > strongcg       :          -          -          -          -          -          -          -          0          0          0          0          0          -
  impliedbounds    :       0.00       0.00          0          0          0          0          0          0          0          0          0          0          0
  interminor       :       0.00       0.00          0          0          0          0          0          0          0          0          0          0          0
  intobj           :       0.00       0.00          0          0          0          0          0          0          0          0          0          0          0
  lagromory        :       0.00       0.00          0          0          0          0          0          0          0          0          0          0          0
  mcf              :       0.00       0.00          0          0          0          0          0          0          0          0          0          0          0
  minor            :       0.20       0.00        211        211          0          0      23455          0      23455       7270          0       7270          0
  mixing           :       0.00       0.00        211        211          0          0          0          0          0          0          0          0          0
  oddcycle         :       0.00       0.00          0          0          0          0          0          0          0          0          0          0          0
  rapidlearning    :       0.00       0.00          0          0          0          0          0          0          0          0          0          0          0
  rlt              :       0.00       0.00         10         10          0          0          0          0          0          0          0          0          0
  zerohalf         :       0.01       0.00          0          0          0          0          0          0          0          0          0          0          0
Cutselectors       :   ExecTime  SetupTime      Calls  RootCalls   Selected     Forced   Filtered  RootSelec   RootForc   RootFilt 
  hybrid           :       0.06       0.00        211        211      12464          0      20082      12464          0      20082
  ensemble         :       0.00       0.00          0          0          0          0          0          0          0          0
  dynamic          :       0.00       0.00          0          0          0          0          0          0          0          0
Pricers            :   ExecTime  SetupTime      Calls       Vars
  problem variables:       0.00          -          0          0
Branching Rules    :   ExecTime  SetupTime   BranchLP  BranchExt   BranchPS    Cutoffs    DomReds       Cuts      Conss   Children
  allfullstrong    :       0.00       0.00          0          0          0          0          0          0          0          0
  cloud            :       0.00       0.00          0          0          0          0          0          0          0          0
  distribution     :       0.00       0.00          0          0          0          0          0          0          0          0
  fullstrong       :       0.00       0.00          0          0          0          0          0          0          0          0
  gomory           :       0.00       0.00          0          0          0          0          0          0          0          0
  inference        :       0.00       0.00          0          0          0          0          0          0          0          0
  leastinf         :       0.00       0.00          0          0          0          0          0          0          0          0
  lookahead        :       0.00       0.00          0          0          0          0          0          0          0          0
  mostinf          :       0.00       0.00          0          0          0          0          0          0          0          0
  multaggr         :       0.00       0.00          0          0          0          0          0          0          0          0
  nodereopt        :       0.00       0.00          0          0          0          0          0          0          0          0
  pscost           :       0.00       0.00          0          0          0          0          0          0          0          0
  random           :       0.00       0.00          0          0          0          0          0          0          0          0
  relpscost        :       0.00       0.00          0          0          0          0          0          0          0          0
  vanillafullstrong:       0.00       0.00          0          0          0          0          0          0          0          0
Primal Heuristics  :   ExecTime  SetupTime      Calls      Found       Best
  LP solutions     :       0.00          -          -          0          0
  relax solutions  :       0.00          -          -          0          0
  pseudo solutions :       0.00          -          -          0          0
  strong branching :       0.00          -          -          0          0
  actconsdiving    :       0.00       0.00          0          0          0
  adaptivediving   :       0.00       0.00          0          0          0
  alns             :       0.02       0.00          1          0          0
  bound            :       0.00       0.00          0          0          0
  clique           :       0.00       0.00          0          0          0
  coefdiving       :       0.00       0.00          0          0          0
  completesol      :       0.00       0.00          0          0          0
  conflictdiving   :       0.00       0.00          0          0          0
  crossover        :       0.00       0.00          0          0          0
  dins             :       0.00       0.00          0          0          0
  distributiondivin:       0.00       0.00          0          0          0
  dks              :       0.00       0.00          0          0          0
  dps              :       0.00       0.00          0          0          0
  dualval          :       0.00       0.00          0          0          0
  farkasdiving     :       0.00       0.00          0          0          0
  feaspump         :       0.00       0.00          0          0          0
  fixandinfer      :       0.00       0.00          0          0          0
  fracdiving       :       0.00       0.00          0          0          0
  gins             :       0.00       0.00          0          0          0
  guideddiving     :       0.00       0.00          0          0          0
  indicator        :       0.00       0.00          0          0          0
  indicatordiving  :       0.00       0.00          0          0          0
  intdiving        :       0.00       0.00          0          0          0
  intshifting      :       0.00       0.00          0          0          0
  linesearchdiving :       0.00       0.00          0          0          0
  localbranching   :       0.00       0.00          0          0          0
  locks            :       0.00       0.00          0          0          0
  lpface           :       0.00       0.00          0          0          0
  mpec             :       0.00       0.00          0          0          0
  multistart       :       0.00       0.00          0          0          0
  mutation         :       0.00       0.00          0          0          0
  nlpdiving        :       0.00       0.00          0          0          0
  objpscostdiving  :       0.00       0.00          0          0          0
  octane           :       0.00       0.00          0          0          0
  ofins            :       0.00       0.00          0          0          0
  oneopt           :       0.00       0.00          0          0          0
  padm             :       0.00       0.00          0          0          0
  proximity        :       0.00       0.00          0          0          0
  pscostdiving     :       0.00       0.00          0          0          0
  randrounding     :       0.00       0.00          0          0          0
  rens             :       0.00       0.00          0          0          0
  reoptsols        :       0.00       0.00          0          0          0
  repair           :       0.00       0.00          0          0          0
  rins             :       0.00       0.00          0          0          0
  rootsoldiving    :       0.00       0.00          0          0          0
  rounding         :       0.00       0.00          0          0          0
  scheduler        :       0.00       0.00          0          0          0
  shiftandpropagate:       0.00       0.00          0          0          0
  shifting         :       0.00       0.00          0          0          0
  simplerounding   :       0.00       0.00          0          0          0
  subnlp           :       0.00       0.00          0          0          0
...